#==============================
#| PARAMETERS FOR KPP PACKAGE
#==============================

 &KPP_PARM01


 &
